12

Si         1.49290        1.49290        0.00000
O          1.18923        0.51905        1.23702
Si         3.47880        3.47880        3.46115
Si         0.99295        3.97875        1.73057
Si         3.97875        0.99295        5.19172
O          3.78247        4.45265        4.69817
O          1.96680        3.67508        2.96759
O          3.00490        1.29662        6.42874
O          1.29662        3.00490        0.49356
O          3.67508        1.96680        3.95471
O          0.51905        1.18923        5.68528
O          4.45265        3.78247        2.22413
